power-flow-agent/results/ieee14/2026-09-18/gpt-5.4/pfagent/traces/12_case14-multistep-006-s0.transcript.txt
==============================================================================
TRANSCRIPT  pfagent  |  openrouter:openai/gpt-5.4  |  case14  |  case14-multistep-006-s0  run 0
==============================================================================
date: 2026-09-18   seed: 0   difficulty: multistep   tool variant: load_split

[system]   (hash 7da5e2a37ec4, from methods/pfagent/method.json prompt_files)
You are a power system power-flow analysis assistant. You help the user complete power system analysis tasks from natural-language requests.

## What you can do
You complete tasks by calling tool functions:
1. Load an IEEE standard test system (14, 30, 57, 118, 300 buses)
2. Run AC power flow
3. Modify the load at a bus and re-solve
4. Disconnect or reconnect a line and re-solve
5. Query the network status
6. Run an N-1 contingency analysis (disconnect branches one at a time and rank the worst cases)
7. Generate remedial-action suggestions (what-if load shedding or voltage adjustment) to reduce violation risk

## Key rules
- Never fabricate any numerical result. Every voltage, power, loss, or loading value must come from a tool return value.
- If a tool reports an error or a non-converged power flow, say so explicitly and do not report numbers for that state.
- If the request is ambiguous, state the interpretation you are using.
- Bus and line identifiers in the request are MATPOWER 1-based ids; pass them to the tools as given, unless the request itself states a different indexing convention for that identifier (e.g. "(0-based)"), in which case convert it to the MATPOWER 1-based id before calling any tool.
- After a network modification, re-solve before reporting any value.
- Always reply in English.

## Reply format
After each analysis, reply in this structure:
1. One-sentence summary
2. Key numbers (total load, total generation, total losses, voltage range) taken from the tool outputs
3. Violations, if any
4. Suggested next step

[user]
Load the 14-bus test case (case14), set the active load at bus 4 to 42.7 MW, disconnect the line between bus 3 and bus 4, reconnect the line between bus 3 and bus 4, and finally rerun the power flow, then list every line whose loading is above 80%.

--- round 1 ---
[assistant]   (981 in / 20 out tokens, 1.2 s)
(no text)
tool_call  load_case(case_name="case14")
[tool load_case]   (gate: not applied)
{"case_name": "case14", "n_buses": 14, "n_generators": 5, "n_lines": 20, "n_loads": 11, "total_load_mw": 251.83093927460206, "total_gen_capacity_mw": 772.4000000000001}

--- round 2 ---
[assistant]   (1082 in / 28 out tokens, 1.2 s)
(no text)
tool_call  set_active_load(bus_id=4, p_mw=42.7)
[tool set_active_load]   (gate: pass)
{"case_name": "case14", "converged": true, "bus_voltages": [{"bus_id": 1, "vm_pu": 1.06, "va_deg": 0.0, "is_violation": true, "violation_type": "overvoltage"}, {"bus_id": 2, "vm_pu": 1.0450000000000002, "va_deg": -4.656475614052621, "is_violation": false, "violation_type": null}, {"bus_id": 3, "vm_pu": 1.0099999999999998, "va_deg": -11.79700603396569, "is_violation": false, "violation_type": null}, {"bus_id": 4, "vm_pu": 1.0186120399236038, "va_deg": -9.72106082021397, "is_violation": false, "violation_type": null}, {"bus_id": 5, "vm_pu": 1.0201609247434607, "va_deg": -8.316471078493505, "is_violation": false, "violation_type": null}, {"bus_id": 6, "vm_pu": 1.07, "va_deg": -13.75189614058688, "is_violation": true, "violation_type": "overvoltage"}, {"bus_id": 7, "vm_pu": 1.062292497163149, "va_deg": -12.770256076115013, "is_violation": true, "violation_type": "overvoltage"}, {"bus_id": 8, "vm_pu": 1.09, "va_deg": -12.770256076115007, "is_violation": true, "violation_type": "overvoltage"}, {"bus_id": 9, "vm_pu": 1.0570907106261187, "va_deg": -14.35015586045095, "is_violation": true, "violation_type": "overvoltage"}, {"bus_id": 10, "vm_pu": 1.0518906919056101, "va_deg": -14.533564664803988, "is_violation": true, "violation_type": "overvoltage"}, {"bus_id": 11, "vm_pu": 1.057231194567899, "va_deg": -14.281085453043554, "is_violation": true, "violation_type": "overvoltage"}, {"bus_id": 12, "vm_pu": 1.0551555738165002, "va_deg": -14.600180443105234, "is_violation": true, "violation_type": "overvoltage"}, {"bus_id": 13, "vm_pu": 1.05098445193329, "va_deg": -14.656153044784348, "is_violation": true, "violation_type": "overvoltage"}, {"bus_id": 14, "vm_pu": 1.0364187258153368, "va_deg": -15.484610236318314, "is_violation": false, "violation_type": null}], "line_flows": [{"line_id": 0, "from_bus": 1, "to_bus": 2, "p_from_mw": 147.02911419136527, "q_from_mvar": -18.072109211772222, "loading_percent": 1.4116220581260828, "is_violation": false}, {"line_id": 1, "from_bus": 1, "to_bus": 5, "p_from_mw": 71.73834134202824, "q_from_mvar": 3.8897357958073453, "loading_percent": 0.6856801700425976, "is_violation": false}, {"line_id": 2, "from_bus": 2, "to_bus": 3, "p_from_mw": 67.81658526769043, "q_from_mvar": 4.121465894741861, "loading_percent": 0.6582676006378552, "is_violation": false}, {"line_id": 3, "from_bus": 2, "to_bus": 4, "p_from_mw": 53.42257132894501, "q_from_mvar": -1.4666037683947557, "loading_percent": 0.5165791773280879, "is_violation": false}, {"line_id": 4, "from_bus": 2, "to_bus": 5, "p_from_mw": 40.13175359722621, "q_from_mvar": 1.1451412917454151, "loading_percent": 0.3896368448588951, "is_violation": false}, {"line_id": 5, "from_bus": 3, "to_bus": 4, "p_from_mw": -20.483471514549052, "q_from_mvar": 2.6816530044908764, "loading_percent": 0.20847617835532312, "is_violation": false}, {"line_id": 6, "from_bus": 4, "to_bus": 5, "p_from_mw": -55.83032656727834, "q_from_mvar": 14.694536563275488, "loading_percent": 0.5724936978358405, "is_violation": false}, {"line_id": 7, "from_bus": 6, "to_bus": 11, "p_from_mw": 6.95803145514946, "q_from_mvar": 3.5707056609378194, "loading_percent": 0.07382942173874119, "is_violation": false}, {"line_id": 8, "from_bus": 6, "to_bus": 12, "p_from_mw": 7.751242729169351, "q_from_mvar": 2.533216324823076, "loading_percent": 0.07698186313010713, "is_violation": false}, {"line_id": 9, "from_bus": 6, "to_bus": 13, "p_from_mw": 17.179392026726287, "q_from_mvar": 7.00277686946708, "loading_percent": 0.1751329174412317, "is_violation": false}, {"line_id": 10, "from_bus": 9, "to_bus": 10, "p_from_mw": 5.836620135324171, "q_from_mvar": 4.314745133194633, "loading_percent": 0.06935670587825292, "is_violation": false}, {"line_id": 11, "from_bus": 9, "to_bus": 14, "p_from_mw": 9.71271369300693, "q_from_mvar": 3.595340713802791, "loading_percent": 0.09896419352245292, "is_violation": false}, {"line_id": 12, "from_bus": 10, "to_bus": 11, "p_from_mw": -3.2122510820526378, "q_from_mvar": -1.546923366643187, "loading_percent": 0.0342367938779441, "is_violation": false}, {"line_id": 13, "from_bus": 12, "to_bus": 13, "p_from_mw": 1.3395627258811187, "q_from_mvar": 0.7216078106444452, "loading_percent": 0.014565906308355511, "is_violation": false}, {"line_id": 14, "from_bus": 13, "to_bus": 14, "p_from_mw": 5.399424181496809, "q_from_mvar": 1.779489846284181, "loading_percent": 0.05463949120571383, "is_violation": false}, {"line_id": 100000, "from_bus": 4, "to_bus": 7, "p_from_mw": 28.143368410882697, "q_from_mvar": -9.59393505692784, "loading_percent": 0.2948525723605106, "is_violation": false}, {"line_id": 100001, "from_bus": 4, "to_bus": 9, "p_from_mw": 16.12437176313527, "q_from_mvar": -0.4617903734203188, "loading_percent": 0.1599620038218758, "is_violation": false}, {"line_id": 100002, "from_bus": 5, "to_bus": 6, "p_from_mw": 44.02109252961879, "q_from_mvar": 12.771164131522085, "loading_percent": 0.45384225887234325, "is_violation": false}, {"line_id": 100003, "from_bus": 7, "to_bus": 8, "p_from_mw": -5.1813588543616646e-14, "q_from_mvar": -16.70932295129911, "loading_percent": 0.15888377293715417, "is_violation": false}, {"line_id": 100004, "from_bus": 7, "to_bus": 9, "p_from_mw": 28.14336841051141, "q_from_mvar": 5.411058591574555, "loading_percent": 0.27250796552431933, "is_violation": false}], "total_generation_mw": 259.6073704789311, "total_load_mw": 247.74885550811788, "total_loss_mw": 11.858514975572978, "voltage_violations": [{"bus_id": 1, "vm_pu": 1.06, "va_deg": 0.0, "is_violation": true, "violation_type": "overvoltage"}, {"bus_id": 6, "vm_pu": 1.07, "va_deg": -13.75189614058688, "is_violation": true, "violation_type": "overvoltage"}, {"bus_id": 7, "vm_pu": 1.062292497163149, "va_deg": -12.770256076115013, "is_violation": true, "violation_type": "overvoltage"}, {"bus_id": 8, "vm_pu": 1.09, "va_deg": -12.770256076115007, "is_violation": true, "violation_type": "overvoltage"}, {"bus_id": 9, "vm_pu": 1.0570907106261187, "va_deg": -14.35015586045095, "is_violation": true, "violation_type": "overvoltage"}, {"bus_id": 10, "vm_pu": 1.0518906919056101, "va_deg": -14.533564664803988, "is_violation": true, "violation_type": "overvoltage"}, {"bus_id": 11, "vm_pu": 1.057231194567899, "va_deg": -14.281085453043554, "is_violation": true, "violation_type": "overvoltage"}, {"bus_id": 12, "vm_pu": 1.0551555738165002, "va_deg": -14.600180443105234, "is_violation": true, "violation_type": "overvoltage"}, {"bus_id": 13, "vm_pu": 1.05098445193329, "va_deg": -14.656153044784348, "is_violation": true, "violation_type": "overvoltage"}], "thermal_violations": [], "summary_text": "", "solver_backend": "pandapower", "llm_prompt": null, "llm_response": null, "resolved_bus_id": 4, "assumption": "reactive load at this bus is unchanged from its present value"}

--- round 3 ---
[assistant]   (3857 in / 24 out tokens, 1.3 s)
(no text)
tool_call  disconnect_line(from_bus=3, to_bus=4)
[tool disconnect_line]   (gate: pass)
{"case_name": "case14", "converged": true, "bus_voltages": [{"bus_id": 1, "vm_pu": 1.06, "va_deg": 0.0, "is_violation": true, "violation_type": "overvoltage"}, {"bus_id": 2, "vm_pu": 1.045, "va_deg": -4.817570053999097, "is_violation": false, "violation_type": null}, {"bus_id": 3, "vm_pu": 1.01, "va_deg": -14.393539957334314, "is_violation": false, "violation_type": null}, {"bus_id": 4, "vm_pu": 1.0213964483294697, "va_deg": -8.89703765147493, "is_violation": false, "violation_type": null}, {"bus_id": 5, "vm_pu": 1.0222489283362057, "va_deg": -7.757325430887554, "is_violation": false, "violation_type": null}, {"bus_id": 6, "vm_pu": 1.07, "va_deg": -13.086849368381984, "is_violation": true, "violation_type": "overvoltage"}, {"bus_id": 7, "vm_pu": 1.0636545086344917, "va_deg": -11.985274252998858, "is_violation": true, "violation_type": "overvoltage"}, {"bus_id": 8, "vm_pu": 1.0900000000000003, "va_deg": -11.985274252998858, "is_violation": true, "violation_type": "overvoltage"}, {"bus_id": 9, "vm_pu": 1.0585563063598007, "va_deg": -13.587541615101525, "is_violation": true, "violation_type": "overvoltage"}, {"bus_id": 10, "vm_pu": 1.0531286595884595, "va_deg": -13.788199784585675, "is_violation": true, "violation_type": "overvoltage"}, {"bus_id": 11, "vm_pu": 1.0578891434993174, "va_deg": -13.575875741603241, "is_violation": true, "violation_type": "overvoltage"}, {"bus_id": 12, "vm_pu": 1.0552485467386064, "va_deg": -13.927266242956474, "is_violation": true, "violation_type": "overvoltage"}, {"bus_id": 13, "vm_pu": 1.051222405460036, "va_deg": -13.977447850850027, "is_violation": true, "violation_type": "overvoltage"}, {"bus_id": 14, "vm_pu": 1.0373710919792103, "va_deg": -14.756757328409934, "is_violation": false, "violation_type": null}], "line_flows": [{"line_id": 0, "from_bus": 1, "to_bus": 2, "p_from_mw": 151.89505008352538, "q_from_mvar": -19.23117662892335, "loading_percent": 1.4590015586739673, "is_violation": false}, {"line_id": 1, "from_bus": 1, "to_bus": 5, "p_from_mw": 67.06323852914244, "q_from_mvar": 3.377499471124759, "loading_percent": 0.6411203104047307, "is_violation": false}, {"line_id": 2, "from_bus": 2, "to_bus": 3, "p_from_mw": 89.7803378062762, "q_from_mvar": 2.2020761852372734, "loading_percent": 0.8680811881708038, "is_violation": false}, {"line_id": 3, "from_bus": 2, "to_bus": 4, "p_from_mw": 43.46023101068052, "q_from_mvar": -0.6567509253204501, "loading_percent": 0.4201362233400805, "is_violation": false}, {"line_id": 4, "from_bus": 2, "to_bus": 5, "p_from_mw": 32.739123754140174, "q_from_mvar": 1.86956314247732, "loading_percent": 0.3201578910497047, "is_violation": false}, {"line_id": 5, "from_bus": 3, "to_bus": 4, "p_from_mw": 0.0, "q_from_mvar": 0.0, "loading_percent": 0.0, "is_violation": false}, {"line_id": 6, "from_bus": 4, "to_bus": 5, "p_from_mw": -45.26871694029105, "q_from_mvar": 12.774201684781378, "loading_percent": 0.465163805415279, "is_violation": false}, {"line_id": 7, "from_bus": 6, "to_bus": 11, "p_from_mw": 6.496849042341886, "q_from_mvar": 3.4334534821625344, "loading_percent": 0.06936948314273317, "is_violation": false}, {"line_id": 8, "from_bus": 6, "to_bus": 12, "p_from_mw": 7.686947669876426, "q_from_mvar": 2.524330907030801, "loading_percent": 0.07637895441299505, "is_violation": false}, {"line_id": 9, "from_bus": 6, "to_bus": 13, "p_from_mw": 16.938033511221974, "q_from_mvar": 6.926689068053473, "loading_percent": 0.1727519824480607, "is_violation": false}, {"line_id": 10, "from_bus": 9, "to_bus": 10, "p_from_mw": 6.291404480036938, "q_from_mvar": 4.43906561722035, "loading_percent": 0.07347352051066589, "is_violation": false}, {"line_id": 11, "from_bus": 9, "to_bus": 14, "p_from_mw": 10.01328726165914, "q_from_mvar": 3.6713107973713486, "loading_percent": 0.10176910123694896, "is_violation": false}, {"line_id": 12, "from_bus": 10, "to_bus": 11, "p_from_mw": -2.75929996116284, "q_from_mvar": -1.4274726535910076, "loading_percent": 0.029797433311343144, "is_violation": false}, {"line_id": 13, "from_bus": 12, "to_bus": 13, "p_from_mw": 1.2763815085776844, "q_from_mvar": 0.7150406087789463, "loading_percent": 0.014004281896262065, "is_violation": false}, {"line_id": 14, "from_bus": 13, "to_bus": 14, "p_from_mw": 5.10060198855783, "q_from_mvar": 1.7077246095695804, "loading_percent": 0.05168480799848842, "is_violation": false}, {"line_id": 100000, "from_bus": 4, "to_bus": 7, "p_from_mw": 28.617924360592006, "q_from_mvar": -8.85817589715361, "loading_percent": 0.29626223075687547, "is_violation": false}, {"line_id": 100001, "from_bus": 4, "to_bus": 9, "p_from_mw": 16.40517372672743, "q_from_mvar": -0.17785507661564945, "loading_percent": 0.1622470529271101, "is_violation": false}, {"line_id": 100002, "from_bus": 5, "to_bus": 6, "p_from_mw": 43.25425654221546, "q_from_mvar": 13.691600505257648, "loading_percent": 0.44830340755511167, "is_violation": false}, {"line_id": 100003, "from_bus": 7, "to_bus": 8, "p_from_mw": 1.0405330623110637e-16, "q_from_mvar": -15.908317157601045, "loading_percent": 0.1510735591252207, "is_violation": false}, {"line_id": 100004, "from_bus": 7, "to_bus": 9, "p_from_mw": 28.61792436025909, "q_from_mvar": 5.3294765722122035, "loading_percent": 0.2764430076711227, "is_violation": false}], "total_generation_mw": 259.79820355820533, "total_load_mw": 247.74885550811788, "total_loss_mw": 12.049348052454526, "voltage_violations": [{"bus_id": 1, "vm_pu": 1.06, "va_deg": 0.0, "is_violation": true, "violation_type": "overvoltage"}, {"bus_id": 6, "vm_pu": 1.07, "va_deg": -13.086849368381984, "is_violation": true, "violation_type": "overvoltage"}, {"bus_id": 7, "vm_pu": 1.0636545086344917, "va_deg": -11.985274252998858, "is_violation": true, "violation_type": "overvoltage"}, {"bus_id": 8, "vm_pu": 1.0900000000000003, "va_deg": -11.985274252998858, "is_violation": true, "violation_type": "overvoltage"}, {"bus_id": 9, "vm_pu": 1.0585563063598007, "va_deg": -13.587541615101525, "is_violation": true, "violation_type": "overvoltage"}, {"bus_id": 10, "vm_pu": 1.0531286595884595, "va_deg": -13.788199784585675, "is_violation": true, "violation_type": "overvoltage"}, {"bus_id": 11, "vm_pu": 1.0578891434993174, "va_deg": -13.575875741603241, "is_violation": true, "violation_type": "overvoltage"}, {"bus_id": 12, "vm_pu": 1.0552485467386064, "va_deg": -13.927266242956474, "is_violation": true, "violation_type": "overvoltage"}, {"bus_id": 13, "vm_pu": 1.051222405460036, "va_deg": -13.977447850850027, "is_violation": true, "violation_type": "overvoltage"}], "thermal_violations": [], "summary_text": "", "solver_backend": "pandapower", "llm_prompt": null, "llm_response": null}

--- round 4 ---
[assistant]   (6592 in / 25 out tokens, 1.4 s)
(no text)
tool_call  reconnect_line(from_bus=3, to_bus=4)
[tool reconnect_line]   (gate: pass)
{"case_name": "case14", "converged": true, "bus_voltages": [{"bus_id": 1, "vm_pu": 1.06, "va_deg": 0.0, "is_violation": true, "violation_type": "overvoltage"}, {"bus_id": 2, "vm_pu": 1.0450000000000002, "va_deg": -4.656475614052621, "is_violation": false, "violation_type": null}, {"bus_id": 3, "vm_pu": 1.0099999999999998, "va_deg": -11.79700603396569, "is_violation": false, "violation_type": null}, {"bus_id": 4, "vm_pu": 1.0186120399236038, "va_deg": -9.72106082021397, "is_violation": false, "violation_type": null}, {"bus_id": 5, "vm_pu": 1.0201609247434607, "va_deg": -8.316471078493505, "is_violation": false, "violation_type": null}, {"bus_id": 6, "vm_pu": 1.07, "va_deg": -13.75189614058688, "is_violation": true, "violation_type": "overvoltage"}, {"bus_id": 7, "vm_pu": 1.062292497163149, "va_deg": -12.770256076115013, "is_violation": true, "violation_type": "overvoltage"}, {"bus_id": 8, "vm_pu": 1.09, "va_deg": -12.770256076115007, "is_violation": true, "violation_type": "overvoltage"}, {"bus_id": 9, "vm_pu": 1.0570907106261187, "va_deg": -14.35015586045095, "is_violation": true, "violation_type": "overvoltage"}, {"bus_id": 10, "vm_pu": 1.0518906919056101, "va_deg": -14.533564664803988, "is_violation": true, "violation_type": "overvoltage"}, {"bus_id": 11, "vm_pu": 1.057231194567899, "va_deg": -14.281085453043554, "is_violation": true, "violation_type": "overvoltage"}, {"bus_id": 12, "vm_pu": 1.0551555738165002, "va_deg": -14.600180443105234, "is_violation": true, "violation_type": "overvoltage"}, {"bus_id": 13, "vm_pu": 1.05098445193329, "va_deg": -14.656153044784348, "is_violation": true, "violation_type": "overvoltage"}, {"bus_id": 14, "vm_pu": 1.0364187258153368, "va_deg": -15.484610236318314, "is_violation": false, "violation_type": null}], "line_flows": [{"line_id": 0, "from_bus": 1, "to_bus": 2, "p_from_mw": 147.02911419136527, "q_from_mvar": -18.072109211772222, "loading_percent": 1.4116220581260828, "is_violation": false}, {"line_id": 1, "from_bus": 1, "to_bus": 5, "p_from_mw": 71.73834134202824, "q_from_mvar": 3.8897357958073453, "loading_percent": 0.6856801700425976, "is_violation": false}, {"line_id": 2, "from_bus": 2, "to_bus": 3, "p_from_mw": 67.81658526769043, "q_from_mvar": 4.121465894741861, "loading_percent": 0.6582676006378552, "is_violation": false}, {"line_id": 3, "from_bus": 2, "to_bus": 4, "p_from_mw": 53.42257132894501, "q_from_mvar": -1.4666037683947557, "loading_percent": 0.5165791773280879, "is_violation": false}, {"line_id": 4, "from_bus": 2, "to_bus": 5, "p_from_mw": 40.13175359722621, "q_from_mvar": 1.1451412917454151, "loading_percent": 0.3896368448588951, "is_violation": false}, {"line_id": 5, "from_bus": 3, "to_bus": 4, "p_from_mw": -20.483471514549052, "q_from_mvar": 2.6816530044908764, "loading_percent": 0.20847617835532312, "is_violation": false}, {"line_id": 6, "from_bus": 4, "to_bus": 5, "p_from_mw": -55.83032656727834, "q_from_mvar": 14.694536563275488, "loading_percent": 0.5724936978358405, "is_violation": false}, {"line_id": 7, "from_bus": 6, "to_bus": 11, "p_from_mw": 6.95803145514946, "q_from_mvar": 3.5707056609378194, "loading_percent": 0.07382942173874119, "is_violation": false}, {"line_id": 8, "from_bus": 6, "to_bus": 12, "p_from_mw": 7.751242729169351, "q_from_mvar": 2.533216324823076, "loading_percent": 0.07698186313010713, "is_violation": false}, {"line_id": 9, "from_bus": 6, "to_bus": 13, "p_from_mw": 17.179392026726287, "q_from_mvar": 7.00277686946708, "loading_percent": 0.1751329174412317, "is_violation": false}, {"line_id": 10, "from_bus": 9, "to_bus": 10, "p_from_mw": 5.836620135324171, "q_from_mvar": 4.314745133194633, "loading_percent": 0.06935670587825292, "is_violation": false}, {"line_id": 11, "from_bus": 9, "to_bus": 14, "p_from_mw": 9.71271369300693, "q_from_mvar": 3.595340713802791, "loading_percent": 0.09896419352245292, "is_violation": false}, {"line_id": 12, "from_bus": 10, "to_bus": 11, "p_from_mw": -3.2122510820526378, "q_from_mvar": -1.546923366643187, "loading_percent": 0.0342367938779441, "is_violation": false}, {"line_id": 13, "from_bus": 12, "to_bus": 13, "p_from_mw": 1.3395627258811187, "q_from_mvar": 0.7216078106444452, "loading_percent": 0.014565906308355511, "is_violation": false}, {"line_id": 14, "from_bus": 13, "to_bus": 14, "p_from_mw": 5.399424181496809, "q_from_mvar": 1.779489846284181, "loading_percent": 0.05463949120571383, "is_violation": false}, {"line_id": 100000, "from_bus": 4, "to_bus": 7, "p_from_mw": 28.143368410882697, "q_from_mvar": -9.59393505692784, "loading_percent": 0.2948525723605106, "is_violation": false}, {"line_id": 100001, "from_bus": 4, "to_bus": 9, "p_from_mw": 16.12437176313527, "q_from_mvar": -0.4617903734203188, "loading_percent": 0.1599620038218758, "is_violation": false}, {"line_id": 100002, "from_bus": 5, "to_bus": 6, "p_from_mw": 44.02109252961879, "q_from_mvar": 12.771164131522085, "loading_percent": 0.45384225887234325, "is_violation": false}, {"line_id": 100003, "from_bus": 7, "to_bus": 8, "p_from_mw": -5.1813588543616646e-14, "q_from_mvar": -16.70932295129911, "loading_percent": 0.15888377293715417, "is_violation": false}, {"line_id": 100004, "from_bus": 7, "to_bus": 9, "p_from_mw": 28.14336841051141, "q_from_mvar": 5.411058591574555, "loading_percent": 0.27250796552431933, "is_violation": false}], "total_generation_mw": 259.6073704789311, "total_load_mw": 247.74885550811788, "total_loss_mw": 11.858514975572978, "voltage_violations": [{"bus_id": 1, "vm_pu": 1.06, "va_deg": 0.0, "is_violation": true, "violation_type": "overvoltage"}, {"bus_id": 6, "vm_pu": 1.07, "va_deg": -13.75189614058688, "is_violation": true, "violation_type": "overvoltage"}, {"bus_id": 7, "vm_pu": 1.062292497163149, "va_deg": -12.770256076115013, "is_violation": true, "violation_type": "overvoltage"}, {"bus_id": 8, "vm_pu": 1.09, "va_deg": -12.770256076115007, "is_violation": true, "violation_type": "overvoltage"}, {"bus_id": 9, "vm_pu": 1.0570907106261187, "va_deg": -14.35015586045095, "is_violation": true, "violation_type": "overvoltage"}, {"bus_id": 10, "vm_pu": 1.0518906919056101, "va_deg": -14.533564664803988, "is_violation": true, "violation_type": "overvoltage"}, {"bus_id": 11, "vm_pu": 1.057231194567899, "va_deg": -14.281085453043554, "is_violation": true, "violation_type": "overvoltage"}, {"bus_id": 12, "vm_pu": 1.0551555738165002, "va_deg": -14.600180443105234, "is_violation": true, "violation_type": "overvoltage"}, {"bus_id": 13, "vm_pu": 1.05098445193329, "va_deg": -14.656153044784348, "is_violation": true, "violation_type": "overvoltage"}], "thermal_violations": [], "summary_text": "", "solver_backend": "pandapower", "llm_prompt": null, "llm_response": null}

--- round 5 ---
[assistant]   (9338 in / 15 out tokens, 1.6 s)
(no text)
tool_call  run_powerflow()
[tool run_powerflow]   (gate: pass)
{"case_name": "case14", "converged": true, "bus_voltages": [{"bus_id": 1, "vm_pu": 1.06, "va_deg": 0.0, "is_violation": true, "violation_type": "overvoltage"}, {"bus_id": 2, "vm_pu": 1.0450000000000002, "va_deg": -4.656475614052621, "is_violation": false, "violation_type": null}, {"bus_id": 3, "vm_pu": 1.0099999999999998, "va_deg": -11.79700603396569, "is_violation": false, "violation_type": null}, {"bus_id": 4, "vm_pu": 1.0186120399236038, "va_deg": -9.72106082021397, "is_violation": false, "violation_type": null}, {"bus_id": 5, "vm_pu": 1.0201609247434607, "va_deg": -8.316471078493505, "is_violation": false, "violation_type": null}, {"bus_id": 6, "vm_pu": 1.07, "va_deg": -13.75189614058688, "is_violation": true, "violation_type": "overvoltage"}, {"bus_id": 7, "vm_pu": 1.062292497163149, "va_deg": -12.770256076115013, "is_violation": true, "violation_type": "overvoltage"}, {"bus_id": 8, "vm_pu": 1.09, "va_deg": -12.770256076115007, "is_violation": true, "violation_type": "overvoltage"}, {"bus_id": 9, "vm_pu": 1.0570907106261187, "va_deg": -14.35015586045095, "is_violation": true, "violation_type": "overvoltage"}, {"bus_id": 10, "vm_pu": 1.0518906919056101, "va_deg": -14.533564664803988, "is_violation": true, "violation_type": "overvoltage"}, {"bus_id": 11, "vm_pu": 1.057231194567899, "va_deg": -14.281085453043554, "is_violation": true, "violation_type": "overvoltage"}, {"bus_id": 12, "vm_pu": 1.0551555738165002, "va_deg": -14.600180443105234, "is_violation": true, "violation_type": "overvoltage"}, {"bus_id": 13, "vm_pu": 1.05098445193329, "va_deg": -14.656153044784348, "is_violation": true, "violation_type": "overvoltage"}, {"bus_id": 14, "vm_pu": 1.0364187258153368, "va_deg": -15.484610236318314, "is_violation": false, "violation_type": null}], "line_flows": [{"line_id": 0, "from_bus": 1, "to_bus": 2, "p_from_mw": 147.02911419136527, "q_from_mvar": -18.072109211772222, "loading_percent": 1.4116220581260828, "is_violation": false}, {"line_id": 1, "from_bus": 1, "to_bus": 5, "p_from_mw": 71.73834134202824, "q_from_mvar": 3.8897357958073453, "loading_percent": 0.6856801700425976, "is_violation": false}, {"line_id": 2, "from_bus": 2, "to_bus": 3, "p_from_mw": 67.81658526769043, "q_from_mvar": 4.121465894741861, "loading_percent": 0.6582676006378552, "is_violation": false}, {"line_id": 3, "from_bus": 2, "to_bus": 4, "p_from_mw": 53.42257132894501, "q_from_mvar": -1.4666037683947557, "loading_percent": 0.5165791773280879, "is_violation": false}, {"line_id": 4, "from_bus": 2, "to_bus": 5, "p_from_mw": 40.13175359722621, "q_from_mvar": 1.1451412917454151, "loading_percent": 0.3896368448588951, "is_violation": false}, {"line_id": 5, "from_bus": 3, "to_bus": 4, "p_from_mw": -20.483471514549052, "q_from_mvar": 2.6816530044908764, "loading_percent": 0.20847617835532312, "is_violation": false}, {"line_id": 6, "from_bus": 4, "to_bus": 5, "p_from_mw": -55.83032656727834, "q_from_mvar": 14.694536563275488, "loading_percent": 0.5724936978358405, "is_violation": false}, {"line_id": 7, "from_bus": 6, "to_bus": 11, "p_from_mw": 6.95803145514946, "q_from_mvar": 3.5707056609378194, "loading_percent": 0.07382942173874119, "is_violation": false}, {"line_id": 8, "from_bus": 6, "to_bus": 12, "p_from_mw": 7.751242729169351, "q_from_mvar": 2.533216324823076, "loading_percent": 0.07698186313010713, "is_violation": false}, {"line_id": 9, "from_bus": 6, "to_bus": 13, "p_from_mw": 17.179392026726287, "q_from_mvar": 7.00277686946708, "loading_percent": 0.1751329174412317, "is_violation": false}, {"line_id": 10, "from_bus": 9, "to_bus": 10, "p_from_mw": 5.836620135324171, "q_from_mvar": 4.314745133194633, "loading_percent": 0.06935670587825292, "is_violation": false}, {"line_id": 11, "from_bus": 9, "to_bus": 14, "p_from_mw": 9.71271369300693, "q_from_mvar": 3.595340713802791, "loading_percent": 0.09896419352245292, "is_violation": false}, {"line_id": 12, "from_bus": 10, "to_bus": 11, "p_from_mw": -3.2122510820526378, "q_from_mvar": -1.546923366643187, "loading_percent": 0.0342367938779441, "is_violation": false}, {"line_id": 13, "from_bus": 12, "to_bus": 13, "p_from_mw": 1.3395627258811187, "q_from_mvar": 0.7216078106444452, "loading_percent": 0.014565906308355511, "is_violation": false}, {"line_id": 14, "from_bus": 13, "to_bus": 14, "p_from_mw": 5.399424181496809, "q_from_mvar": 1.779489846284181, "loading_percent": 0.05463949120571383, "is_violation": false}, {"line_id": 100000, "from_bus": 4, "to_bus": 7, "p_from_mw": 28.143368410882697, "q_from_mvar": -9.59393505692784, "loading_percent": 0.2948525723605106, "is_violation": false}, {"line_id": 100001, "from_bus": 4, "to_bus": 9, "p_from_mw": 16.12437176313527, "q_from_mvar": -0.4617903734203188, "loading_percent": 0.1599620038218758, "is_violation": false}, {"line_id": 100002, "from_bus": 5, "to_bus": 6, "p_from_mw": 44.02109252961879, "q_from_mvar": 12.771164131522085, "loading_percent": 0.45384225887234325, "is_violation": false}, {"line_id": 100003, "from_bus": 7, "to_bus": 8, "p_from_mw": -5.1813588543616646e-14, "q_from_mvar": -16.70932295129911, "loading_percent": 0.15888377293715417, "is_violation": false}, {"line_id": 100004, "from_bus": 7, "to_bus": 9, "p_from_mw": 28.14336841051141, "q_from_mvar": 5.411058591574555, "loading_percent": 0.27250796552431933, "is_violation": false}], "total_generation_mw": 259.6073704789311, "total_load_mw": 247.74885550811788, "total_loss_mw": 11.858514975572978, "voltage_violations": [{"bus_id": 1, "vm_pu": 1.06, "va_deg": 0.0, "is_violation": true, "violation_type": "overvoltage"}, {"bus_id": 6, "vm_pu": 1.07, "va_deg": -13.75189614058688, "is_violation": true, "violation_type": "overvoltage"}, {"bus_id": 7, "vm_pu": 1.062292497163149, "va_deg": -12.770256076115013, "is_violation": true, "violation_type": "overvoltage"}, {"bus_id": 8, "vm_pu": 1.09, "va_deg": -12.770256076115007, "is_violation": true, "violation_type": "overvoltage"}, {"bus_id": 9, "vm_pu": 1.0570907106261187, "va_deg": -14.35015586045095, "is_violation": true, "violation_type": "overvoltage"}, {"bus_id": 10, "vm_pu": 1.0518906919056101, "va_deg": -14.533564664803988, "is_violation": true, "violation_type": "overvoltage"}, {"bus_id": 11, "vm_pu": 1.057231194567899, "va_deg": -14.281085453043554, "is_violation": true, "violation_type": "overvoltage"}, {"bus_id": 12, "vm_pu": 1.0551555738165002, "va_deg": -14.600180443105234, "is_violation": true, "violation_type": "overvoltage"}, {"bus_id": 13, "vm_pu": 1.05098445193329, "va_deg": -14.656153044784348, "is_violation": true, "violation_type": "overvoltage"}], "thermal_violations": [], "summary_text": "", "solver_backend": "pandapower", "llm_prompt": null, "llm_response": null}

--- round 6 ---
[assistant]   (12074 in / 283 out tokens, 3.0 s)
1. Summary: I loaded case14, set bus 4 active load to 42.7 MW, disconnected and reconnected line 3–4, reran the power flow, and in the final solved state only line 1–2 is loaded above 80%.

2. Key numbers:
- Total load: 247.7489 MW
- Total generation: 259.6074 MW
- Total losses: 11.8585 MW
- Voltage range: 1.0100 to 1.0900 pu

3. Violations:
- Lines above 80% loading in the final power-flow result:
  - Line 1–2: 141.16%
  - Line 2–3: 65.83% is below 80%, so not included
- Voltage violations in the final state:
  - Overvoltage at buses 1, 6, 7, 8, 9, 10, 11, 12, and 13
- No thermal violations were flagged by the solver output, despite line 1–2 having 141.16% reported loading.

4. Suggested next step:
- If you want, I can now run an N-1 contingency analysis on this modified case or suggest remedial actions to reduce the voltage violations and high loading on line 1–2.

--- round 6 ---
[assistant]   (12497 in / 15 out tokens, 2.0 s)
(no text)
tool_call  run_powerflow()
[tool run_powerflow]   (gate: pass)
{"case_name": "case14", "converged": true, "bus_voltages": [{"bus_id": 1, "vm_pu": 1.06, "va_deg": 0.0, "is_violation": true, "violation_type": "overvoltage"}, {"bus_id": 2, "vm_pu": 1.0450000000000002, "va_deg": -4.656475614052621, "is_violation": false, "violation_type": null}, {"bus_id": 3, "vm_pu": 1.0099999999999998, "va_deg": -11.79700603396569, "is_violation": false, "violation_type": null}, {"bus_id": 4, "vm_pu": 1.0186120399236038, "va_deg": -9.72106082021397, "is_violation": false, "violation_type": null}, {"bus_id": 5, "vm_pu": 1.0201609247434607, "va_deg": -8.316471078493505, "is_violation": false, "violation_type": null}, {"bus_id": 6, "vm_pu": 1.07, "va_deg": -13.75189614058688, "is_violation": true, "violation_type": "overvoltage"}, {"bus_id": 7, "vm_pu": 1.062292497163149, "va_deg": -12.770256076115013, "is_violation": true, "violation_type": "overvoltage"}, {"bus_id": 8, "vm_pu": 1.09, "va_deg": -12.770256076115007, "is_violation": true, "violation_type": "overvoltage"}, {"bus_id": 9, "vm_pu": 1.0570907106261187, "va_deg": -14.35015586045095, "is_violation": true, "violation_type": "overvoltage"}, {"bus_id": 10, "vm_pu": 1.0518906919056101, "va_deg": -14.533564664803988, "is_violation": true, "violation_type": "overvoltage"}, {"bus_id": 11, "vm_pu": 1.057231194567899, "va_deg": -14.281085453043554, "is_violation": true, "violation_type": "overvoltage"}, {"bus_id": 12, "vm_pu": 1.0551555738165002, "va_deg": -14.600180443105234, "is_violation": true, "violation_type": "overvoltage"}, {"bus_id": 13, "vm_pu": 1.05098445193329, "va_deg": -14.656153044784348, "is_violation": true, "violation_type": "overvoltage"}, {"bus_id": 14, "vm_pu": 1.0364187258153368, "va_deg": -15.484610236318314, "is_violation": false, "violation_type": null}], "line_flows": [{"line_id": 0, "from_bus": 1, "to_bus": 2, "p_from_mw": 147.02911419136527, "q_from_mvar": -18.072109211772222, "loading_percent": 1.4116220581260828, "is_violation": false}, {"line_id": 1, "from_bus": 1, "to_bus": 5, "p_from_mw": 71.73834134202824, "q_from_mvar": 3.8897357958073453, "loading_percent": 0.6856801700425976, "is_violation": false}, {"line_id": 2, "from_bus": 2, "to_bus": 3, "p_from_mw": 67.81658526769043, "q_from_mvar": 4.121465894741861, "loading_percent": 0.6582676006378552, "is_violation": false}, {"line_id": 3, "from_bus": 2, "to_bus": 4, "p_from_mw": 53.42257132894501, "q_from_mvar": -1.4666037683947557, "loading_percent": 0.5165791773280879, "is_violation": false}, {"line_id": 4, "from_bus": 2, "to_bus": 5, "p_from_mw": 40.13175359722621, "q_from_mvar": 1.1451412917454151, "loading_percent": 0.3896368448588951, "is_violation": false}, {"line_id": 5, "from_bus": 3, "to_bus": 4, "p_from_mw": -20.483471514549052, "q_from_mvar": 2.6816530044908764, "loading_percent": 0.20847617835532312, "is_violation": false}, {"line_id": 6, "from_bus": 4, "to_bus": 5, "p_from_mw": -55.83032656727834, "q_from_mvar": 14.694536563275488, "loading_percent": 0.5724936978358405, "is_violation": false}, {"line_id": 7, "from_bus": 6, "to_bus": 11, "p_from_mw": 6.95803145514946, "q_from_mvar": 3.5707056609378194, "loading_percent": 0.07382942173874119, "is_violation": false}, {"line_id": 8, "from_bus": 6, "to_bus": 12, "p_from_mw": 7.751242729169351, "q_from_mvar": 2.533216324823076, "loading_percent": 0.07698186313010713, "is_violation": false}, {"line_id": 9, "from_bus": 6, "to_bus": 13, "p_from_mw": 17.179392026726287, "q_from_mvar": 7.00277686946708, "loading_percent": 0.1751329174412317, "is_violation": false}, {"line_id": 10, "from_bus": 9, "to_bus": 10, "p_from_mw": 5.836620135324171, "q_from_mvar": 4.314745133194633, "loading_percent": 0.06935670587825292, "is_violation": false}, {"line_id": 11, "from_bus": 9, "to_bus": 14, "p_from_mw": 9.71271369300693, "q_from_mvar": 3.595340713802791, "loading_percent": 0.09896419352245292, "is_violation": false}, {"line_id": 12, "from_bus": 10, "to_bus": 11, "p_from_mw": -3.2122510820526378, "q_from_mvar": -1.546923366643187, "loading_percent": 0.0342367938779441, "is_violation": false}, {"line_id": 13, "from_bus": 12, "to_bus": 13, "p_from_mw": 1.3395627258811187, "q_from_mvar": 0.7216078106444452, "loading_percent": 0.014565906308355511, "is_violation": false}, {"line_id": 14, "from_bus": 13, "to_bus": 14, "p_from_mw": 5.399424181496809, "q_from_mvar": 1.779489846284181, "loading_percent": 0.05463949120571383, "is_violation": false}, {"line_id": 100000, "from_bus": 4, "to_bus": 7, "p_from_mw": 28.143368410882697, "q_from_mvar": -9.59393505692784, "loading_percent": 0.2948525723605106, "is_violation": false}, {"line_id": 100001, "from_bus": 4, "to_bus": 9, "p_from_mw": 16.12437176313527, "q_from_mvar": -0.4617903734203188, "loading_percent": 0.1599620038218758, "is_violation": false}, {"line_id": 100002, "from_bus": 5, "to_bus": 6, "p_from_mw": 44.02109252961879, "q_from_mvar": 12.771164131522085, "loading_percent": 0.45384225887234325, "is_violation": false}, {"line_id": 100003, "from_bus": 7, "to_bus": 8, "p_from_mw": -5.1813588543616646e-14, "q_from_mvar": -16.70932295129911, "loading_percent": 0.15888377293715417, "is_violation": false}, {"line_id": 100004, "from_bus": 7, "to_bus": 9, "p_from_mw": 28.14336841051141, "q_from_mvar": 5.411058591574555, "loading_percent": 0.27250796552431933, "is_violation": false}], "total_generation_mw": 259.6073704789311, "total_load_mw": 247.74885550811788, "total_loss_mw": 11.858514975572978, "voltage_violations": [{"bus_id": 1, "vm_pu": 1.06, "va_deg": 0.0, "is_violation": true, "violation_type": "overvoltage"}, {"bus_id": 6, "vm_pu": 1.07, "va_deg": -13.75189614058688, "is_violation": true, "violation_type": "overvoltage"}, {"bus_id": 7, "vm_pu": 1.062292497163149, "va_deg": -12.770256076115013, "is_violation": true, "violation_type": "overvoltage"}, {"bus_id": 8, "vm_pu": 1.09, "va_deg": -12.770256076115007, "is_violation": true, "violation_type": "overvoltage"}, {"bus_id": 9, "vm_pu": 1.0570907106261187, "va_deg": -14.35015586045095, "is_violation": true, "violation_type": "overvoltage"}, {"bus_id": 10, "vm_pu": 1.0518906919056101, "va_deg": -14.533564664803988, "is_violation": true, "violation_type": "overvoltage"}, {"bus_id": 11, "vm_pu": 1.057231194567899, "va_deg": -14.281085453043554, "is_violation": true, "violation_type": "overvoltage"}, {"bus_id": 12, "vm_pu": 1.0551555738165002, "va_deg": -14.600180443105234, "is_violation": true, "violation_type": "overvoltage"}, {"bus_id": 13, "vm_pu": 1.05098445193329, "va_deg": -14.656153044784348, "is_violation": true, "violation_type": "overvoltage"}], "thermal_violations": [], "summary_text": "", "solver_backend": "pandapower", "llm_prompt": null, "llm_response": null}

--- round 7 ---
[assistant]   (15233 in / 242 out tokens, 3.2 s)
1. Summary: The requested sequence completed successfully on case14, and in the final rerun only line 1–2 has loading above 80%.

2. Key numbers:
- Total load: 247.74885550811788 MW
- Total generation: 259.6073704789311 MW
- Total losses: 11.858514975572978 MW
- Voltage range: 1.0099999999999998 to 1.09 pu

3. Violations:
- Lines with loading above 80% in the final state:
  - Line 1–2: loading_percent = 1.4116220581260828
- Voltage violations in the final state:
  - Buses 1, 6, 7, 8, 9, 10, 11, 12, and 13 are reported as overvoltage
- Thermal violations field:
  - None reported in `thermal_violations`

4. Suggested next step:
- If you want, I can rank all lines by loading in the final state or run an N-1 contingency analysis on this modified 14-bus case.

[final answer]
1. Summary: The requested sequence completed successfully on case14, and in the final rerun only line 1–2 has loading above 80%.

2. Key numbers:
- Total load: 247.74885550811788 MW
- Total generation: 259.6073704789311 MW
- Total losses: 11.858514975572978 MW
- Voltage range: 1.0099999999999998 to 1.09 pu

3. Violations:
- Lines with loading above 80% in the final state:
  - Line 1–2: loading_percent = 1.4116220581260828
- Voltage violations in the final state:
  - Buses 1, 6, 7, 8, 9, 10, 11, 12, and 13 are reported as overvoltage
- Thermal violations field:
  - None reported in `thermal_violations`

4. Suggested next step:
- If you want, I can rank all lines by loading in the final state or run an N-1 contingency analysis on this modified 14-bus case.

[verification gate]   outcome: pass_retry after 2 attempt(s)
attempt 1: FAIL
  V1  converged              pass  residual 0
  V2  balance                pass  residual 4.76e-09
  V3  no_isolated_buses      pass  residual 0
  V4  faithfulness           FAIL  residual 0.25
  V5  currency               pass  residual 0
attempt 2: pass
  V1  converged              pass  residual 0
  V2  balance                pass  residual 4.76e-09
  V3  no_isolated_buses      pass  residual 0
  V4  faithfulness           pass  residual 0
  V5  currency               pass  residual 0
[retry message to the model]
Verification failed before this answer could be accepted. Failed condition(s):
- 25% of the numbers in the answer do not match any tool output or the request
Produce a corrected final answer. You may call tools again if needed, but only to inspect the current state (e.g. re-running the power flow) -- do not undo or reverse a network change the request asked for (do not reconnect a line it asked you to disconnect, do not revert a load value it asked you to set) just to reach a state that passes verification. If the requested state genuinely fails, report that failure. Do not change a number without a tool call to support it.
